*SPEF "IEEE 1481-1998"
*DESIGN "dlx_ADDR_SIZE32_DATA_SIZE32"
*DATE "Mon Oct 11 18:37:53 2021"
*VENDOR "Cadence Design Systems, Inc."
*PROGRAM "Innovus"
*VERSION "17.11-s080_1"
*DESIGN_FLOW "COUPLING C" "PIN_CAP NONE" "NAME_SCOPE LOCAL"
*DIVIDER /
*DELIMITER :
*BUS_DELIMITER []
*T_UNIT 1 NS
*C_UNIT 1 PF
*R_UNIT 1 OHM
*L_UNIT 1 HENRY

// MMMC spef file for corner 'standard'

*NAME_MAP

*1 CLK
*2 RESET
*3 DP_pre_IMMM_enable_signal
*4 DP_NPC_enable_signal
*5 DP_PC_enable_signal
*6 DP_Jump_25_signal
*7 DP_reg1_enable_signal
*8 DP_RF_enable_signal
*9 DP_RF_RS1_signal
*10 DP_RF_RS2_signal
*11 DP_RF_WR_RDneg_signal
*12 DP_muxs1_signal
*13 DP_muxs2_signal
*14 DP_reg2_signal
*15 DP_reg3_signal
*16 DP_CS_signal
*17 DP_RD_WRN_mem_signal
*18 DP_MUX_PC_mem_signal
*19 DP_muxs3_signal
*20 DP_MUX_RS2_WR_sel_signal
*21 DP_MUX_RD_WR_sel_signal
*22 cu/N198
*23 cu/N199
*24 cu/N200
*25 cu/N201
*26 cu/N202
*27 cu/N203
*28 cu/N204
*29 cu/N205
*30 cu/N206
*31 cu/N207
*32 cu/N208
*33 cu/N210
*34 cu/N211
*35 cu/N212
*36 cu/N213
*37 cu/N236
*38 cu/N237
*39 cu/N238
*40 cu/N239
*41 cu/N240
*42 cu/N241
*43 cu/N242
*44 cu/N243
*45 cu/N244
*46 cu/N245
*47 cu/N246
*48 cu/n142
*49 cu/n144
*50 cu/n146
*51 cu/n148
*52 cu/n150
*53 cu/n151
*54 cu/n152
*55 cu/n153
*56 cu/n154
*57 cu/n155
*58 cu/n164
*59 cu/n165
*60 cu/n166
*61 cu/n167
*62 cu/n168
*63 cu/n169
*64 cu/n170
*65 cu/n171
*66 cu/n172
*67 cu/n173
*68 cu/n174
*69 cu/n175
*70 cu/n176
*71 cu/n177
*72 cu/n178
*73 cu/n179
*74 cu/n180
*75 cu/n181
*76 cu/n182
*77 cu/n183
*78 cu/n184
*79 cu/n185
*80 cu/n186
*81 cu/n187
*82 cu/n1
*83 cu/n2
*84 cu/n3
*85 cu/n4
*86 cu/n5
*87 cu/n6
*88 cu/n7
*89 cu/n8
*90 cu/n9
*91 cu/n10
*92 cu/n11
*93 cu/n12
*94 cu/n13
*95 cu/n14
*96 cu/n15
*97 cu/n16
*98 cu/n17
*99 cu/n18
*100 cu/n19
*101 cu/n20
*102 cu/n21
*103 cu/n22
*104 cu/n23
*105 cu/n24
*106 cu/n25
*107 cu/n26
*108 cu/n27
*109 cu/n28
*110 cu/n29
*111 cu/n30
*112 cu/n31
*113 cu/n32
*114 cu/n33
*115 cu/n34
*116 cu/n35
*117 cu/n36
*118 cu/n37
*119 cu/n38
*120 cu/n39
*121 cu/n40
*122 cu/n41
*123 cu/n42
*124 cu/n43
*125 cu/n44
*126 cu/n45
*127 cu/n46
*128 cu/n47
*129 cu/n48
*130 cu/n49
*131 cu/n50
*132 cu/n51
*133 cu/n52
*134 cu/n53
*135 cu/n54
*136 cu/n55
*137 cu/n56
*138 cu/n57
*139 cu/n58
*140 cu/n59
*141 cu/n60
*142 cu/n61
*143 cu/n62
*144 cu/n63
*145 cu/n64
*146 cu/n65
*147 cu/n66
*148 cu/n67
*149 cu/n68
*150 cu/n69
*151 cu/n70
*152 cu/n71
*153 cu/n72
*154 cu/n73
*155 cu/n74
*156 cu/n75
*157 cu/n76
*158 cu/n77
*159 cu/n78
*160 cu/n79
*161 cu/n80
*162 cu/n81
*163 cu/n82
*164 cu/n83
*165 cu/n84
*166 cu/n85
*167 cu/n86
*168 cu/n87
*169 cu/n88
*170 cu/n89
*171 cu/n90
*172 cu/n91
*173 cu/n92
*174 cu/n93
*175 cu/n94
*176 cu/n95
*177 cu/n96
*178 cu/n97
*179 cu/n98
*180 cu/n99
*181 cu/n100
*182 cu/n101
*183 cu/n102
*184 cu/n103
*185 cu/n104
*186 cu/n105
*187 cu/n106
*188 cu/n107
*189 cu/n108
*190 cu/n109
*191 cu/n110
*192 cu/n111
*193 cu/n112
*194 cu/n113
*195 cu/n114
*196 cu/n115
*197 cu/n116
*198 cu/FUNC_TO_DO[4]
*199 cu/FUNC_TO_DO[3]
*200 cu/FUNC_TO_DO[2]
*201 cu/FUNC_TO_DO[1]
*202 cu/FUNC_TO_DO[0]
*203 cu/cw1[15]
*204 cu/cw1[14]
*205 cu/cw1[13]
*206 cu/cw1[12]
*207 cu/cw1[11]
*208 cu/cw1[10]
*209 cu/cw1[9]
*210 cu/cw1[8]
*211 cu/cw1[7]
*212 cu/cw1[6]
*213 cu/cw1[5]
*214 cu/cw1[4]
*215 cu/cw1[3]
*216 cu/cw1[2]
*217 cu/cw1[1]
*218 cu/cw1[0]
*219 cu/cw3[7]
*220 cu/cw3[6]
*221 cu/cw3[5]
*222 cu/cw3[4]
*223 cu/cw3[3]
*224 cu/cw3[2]
*225 cu/cw3[1]
*226 cu/cw3[0]
*227 cu/cw4[4]
*228 cu/cw4[3]
*229 cu/cw4[2]
*230 cu/cw4[1]
*231 cu/cw4[0]
*232 cu/ALUop1[4]
*233 cu/ALUop1[3]
*234 cu/ALUop1[2]
*235 cu/ALUop1[1]
*236 cu/ALUop1[0]
*237 cu/ALUop1_reg\[4\]
*238 cu/ALUop1_reg\[3\]
*239 cu/ALUop1_reg\[2\]
*240 cu/ALUop1_reg\[1\]
*241 cu/ALUop1_reg\[0\]
*242 cu/cw1_reg\[18\]
*243 cu/cw1_reg\[17\]
*244 cu/cw1_reg\[16\]
*245 cu/cw1_reg\[15\]
*246 cu/cw1_reg\[14\]
*247 cu/cw1_reg\[13\]
*248 cu/cw1_reg\[12\]
*249 cu/cw1_reg\[11\]
*250 cu/cw1_reg\[10\]
*251 cu/cw1_reg\[9\]
*252 cu/cw1_reg\[8\]
*253 cu/cw1_reg\[7\]
*254 cu/cw1_reg\[6\]
*255 cu/cw1_reg\[5\]
*256 cu/cw1_reg\[4\]
*257 cu/cw1_reg\[3\]
*258 cu/cw1_reg\[2\]
*259 cu/cw1_reg\[1\]
*260 cu/cw1_reg\[0\]
*261 cu/cw2_reg\[15\]
*262 cu/cw2_reg\[14\]
*263 cu/cw2_reg\[13\]
*264 cu/cw2_reg\[12\]
*265 cu/cw2_reg\[11\]
*266 cu/cw2_reg\[10\]
*267 cu/cw2_reg\[9\]
*268 cu/cw2_reg\[8\]
*269 cu/cw2_reg\[7\]
*270 cu/cw2_reg\[6\]
*271 cu/cw2_reg\[5\]
*272 cu/cw2_reg\[4\]
*273 cu/cw2_reg\[3\]
*274 cu/cw2_reg\[2\]
*275 cu/cw2_reg\[1\]
*276 cu/cw2_reg\[0\]
*277 cu/cw3_reg\[10\]
*278 cu/cw3_reg\[9\]
*279 cu/cw3_reg\[8\]
*280 cu/cw3_reg\[7\]
*281 cu/cw3_reg\[6\]
*282 cu/cw3_reg\[5\]
*283 cu/cw3_reg\[4\]
*284 cu/cw3_reg\[3\]
*285 cu/cw3_reg\[2\]
*286 cu/cw3_reg\[1\]
*287 cu/cw3_reg\[0\]
*288 cu/cw4_reg\[7\]
*289 cu/cw4_reg\[6\]
*290 cu/cw4_reg\[5\]
*291 cu/cw4_reg\[4\]
*292 cu/cw4_reg\[3\]
*293 cu/cw4_reg\[2\]
*294 cu/cw4_reg\[1\]
*295 cu/cw4_reg\[0\]
*296 cu/cw5_reg\[4\]
*297 cu/cw5_reg\[3\]
*298 cu/cw5_reg\[2\]
*299 cu/cw5_reg\[1\]
*300 cu/cw5_reg\[0\]
*301 cu/ALUop2_reg\[4\]
*302 cu/aluOpcode_i_reg\[4\]
*303 cu/ALUop2_reg\[3\]
*304 cu/aluOpcode_i_reg\[3\]
*305 cu/ALUop2_reg\[2\]
*306 cu/aluOpcode_i_reg\[2\]
*307 cu/ALUop2_reg\[1\]
*308 cu/aluOpcode_i_reg\[1\]
*309 cu/ALUop2_reg\[0\]
*310 cu/aluOpcode_i_reg\[0\]
*311 cu/U3
*312 cu/U4
*313 cu/U5
*314 cu/U6
*315 cu/U7
*316 cu/U8
*317 cu/U9
*318 cu/U10
*319 cu/U11
*320 cu/U12
*321 cu/U13
*322 cu/U14
*323 cu/U15
*324 cu/U16
*325 cu/U17
*326 cu/U18
*327 cu/U19
*328 cu/U20
*329 cu/U21
*330 cu/U22
*331 cu/U23
*332 cu/U24
*333 cu/U25
*334 cu/U26
*335 cu/U27
*336 cu/U28
*337 cu/U29
*338 cu/U30
*339 cu/U31
*340 cu/U32
*341 cu/U33
*342 cu/U34
*343 cu/U35
*344 cu/U36
*345 cu/U37
*346 cu/U38
*347 cu/U39
*348 cu/U40
*349 cu/U41
*350 cu/U42
*351 cu/U43
*352 cu/U44
*353 cu/U45
*354 cu/U46
*355 cu/U47
*356 cu/U48
*357 cu/U49
*358 cu/U50
*359 cu/U51
*360 cu/U52
*361 cu/U53
*362 cu/U54
*363 cu/U55
*364 cu/U56
*365 cu/U57
*366 cu/U58
*367 cu/U59
*368 cu/U60
*369 cu/U61
*370 cu/U62
*371 cu/U63
*372 cu/U64
*373 cu/U65
*374 cu/U66
*375 cu/U67
*376 cu/U68
*377 cu/U69
*378 cu/U70
*379 cu/U71
*380 cu/U72
*381 cu/U73
*382 cu/U74
*383 cu/U75
*384 cu/U76
*385 cu/U77
*386 cu/U78
*387 cu/U79
*388 cu/U80
*389 cu/U81
*390 cu/U82
*391 cu/U83
*392 cu/U84
*393 cu/U85
*394 cu/U86
*395 cu/U87
*396 cu/U88
*397 cu/U89
*398 cu/U90
*399 cu/U91
*400 cu/U92
*401 cu/U93
*402 cu/U94
*403 cu/U95
*404 cu/U96
*405 cu/U97
*406 cu/U98
*407 cu/U99
*408 cu/U100
*409 cu/U101
*410 cu/U102
*411 cu/U103
*412 cu/U104
*413 cu/U105
*414 cu/U106
*415 cu/U107
*416 cu/U108
*417 cu/U109
*418 cu/U110
*419 cu/U111
*420 cu/U112
*421 cu/U113
*422 cu/U114
*423 cu/U115
*424 cu/U116
*425 cu/U117
*426 cu/U118
*427 cu/U119
*428 cu/U120
*429 cu/U121
*430 cu/U122
*431 cu/U123
*432 cu/U124
*433 cu/U125
*434 cu/U126
*435 cu/U127
*436 cu/U128
*437 cu/U129
*438 cu/U130
*439 cu/U131
*440 cu/U132
*441 cu/U133
*442 cu/U134
*443 cu/U135
*444 cu/U136
*445 cu/U137
*446 cu/U138
*447 cu/U139
*448 cu/U140
*449 cu/U141
*450 cu/U142
*451 cu/U143
*452 cu/U144
*453 cu/U145
*454 cu/U146
*455 cu/U147
*456 cu/U148
*457 cu/U149
*458 cu/U150
*459 cu/U151
*460 cu/U152


*PORTS

*1 I *C 0.095 38.08
*2 I *C 0.285 38.08


*D_NET *1 0.0134271

*CONN
*P *1 I *C 0.095 38.08 *L 0
*I *310:CK I *C 14.86 32.17 *L 0.00095 *D DFF_X1
*I *309:CK I *C 14.86 31.11 *L 0.00095 *D DFF_X1
*I *308:CK I *C 24.74 31.11 *L 0.00095 *D DFF_X1
*I *307:CK I *C 21.51 31.11 *L 0.00095 *D DFF_X1
*I *306:CK I *C 18.09 32.17 *L 0.00095 *D DFF_X1
*I *305:CK I *C 16.57 29.37 *L 0.00095 *D DFF_X1
*I *304:CK I *C 15.81 26.57 *L 0.00095 *D DFF_X1
*I *303:CK I *C 16.76 25.51 *L 0.00095 *D DFF_X1
*I *302:CK I *C 23.98 32.17 *L 0.00095 *D DFF_X1
*I *301:CK I *C 21.32 29.37 *L 0.00095 *D DFF_X1
*I *300:CK I *C 30.005 20.86 *L 0.000977 *D DFFR_X1
*I *299:CK I *C 30.765 32.06 *L 0.000977 *D DFFR_X1
*I *298:CK I *C 31.335 31.22 *L 0.000977 *D DFFR_X1
*I *297:CK I *C 31.335 17.22 *L 0.000977 *D DFFR_X1
*I *296:CK I *C 31.175 6.86 *L 0.000977 *D DFFR_X1
*I *295:CK I *C 31.98 19.78 *L 0.00103 *D SDFFR_X1
*I *294:CK I *C 28.18 30.98 *L 0.00103 *D SDFFR_X1
*I *293:CK I *C 31.41 29.5 *L 0.00103 *D SDFFR_X1
*I *292:CK I *C 31.98 14.18 *L 0.00103 *D SDFFR_X1
*I *291:CK I *C 31.41 9.9 *L 0.00103 *D SDFFR_X1
*I *290:CK I *C 31.98 25.38 *L 0.00103 *D SDFFR_X1
*I *289:CK I *C 31.79 23.9 *L 0.00103 *D SDFFR_X1
*I *288:CK I *C 31.22 12.7 *L 0.00103 *D SDFFR_X1
*I *287:CK I *C 31.335 18.06 *L 0.000977 *D DFFR_X1
*I *286:CK I *C 26.965 32.06 *L 0.000977 *D DFFR_X1
*I *285:CK I *C 29.055 28.42 *L 0.000977 *D DFFR_X1
*I *284:CK I *C 30.385 15.26 *L 0.000977 *D DFFR_X1
*I *283:CK I *C 27.535 11.62 *L 0.000977 *D DFFR_X1
*I *282:CK I *C 30.385 26.46 *L 0.000977 *D DFFR_X1
*I *281:CK I *C 27.535 22.82 *L 0.000977 *D DFFR_X1
*I *280:CK I *C 31.335 11.62 *L 0.000977 *D DFFR_X1
*I *279:CK I *C 17.275 6.02 *L 0.000977 *D DFFR_X1
*I *278:CK I *C 21.645 12.46 *L 0.000977 *D DFFR_X1
*I *277:CK I *C 16.925 6.02 *L 0.000977 *D DFFR_X1
*I *276:CK I *C 26.965 17.22 *L 0.000977 *D DFFR_X1
*I *275:CK I *C 22.785 25.62 *L 0.000977 *D DFFR_X1
*I *274:CK I *C 25.065 29.26 *L 0.000977 *D DFFR_X1
*I *273:CK I *C 25.825 15.26 *L 0.000977 *D DFFR_X1
*I *272:CK I *C 24.495 14.42 *L 0.000977 *D DFFR_X1
*I *271:CK I *C 26.395 23.66 *L 0.000977 *D DFFR_X1
*I *270:CK I *C 22.975 22.82 *L 0.000977 *D DFFR_X1
*I *269:CK I *C 30.195 6.02 *L 0.000977 *D DFFR_X1
*I *268:CK I *C 13.285 6.86 *L 0.000977 *D DFFR_X1
*I *267:CK I *C 24.145 14.42 *L 0.000977 *D DFFR_X1
*I *266:CK I *C 13.475 8.82 *L 0.000977 *D DFFR_X1
*I *265:CK I *C 19.935 6.86 *L 0.000977 *D DFFR_X1
*I *264:CK I *C 23.735 8.82 *L 0.000977 *D DFFR_X1
*I *263:CK I *C 22.975 6.02 *L 0.000977 *D DFFR_X1
*I *262:CK I *C 21.455 9.66 *L 0.000977 *D DFFR_X1
*I *261:CK I *C 19.175 22.82 *L 0.000977 *D DFFR_X1

*CAP
1 *1 1.004e-05
2 *310:CK 1.662e-05
3 *309:CK 1.662e-05
4 *308:CK 1.662e-05
5 *307:CK 1.662e-05
6 *306:CK 1.662e-05
7 *305:CK 1.662e-05
8 *304:CK 1.662e-05
9 *303:CK 1.662e-05
10 *302:CK 1.662e-05
11 *301:CK 1.662e-05
12 *300:CK 1.662e-05
13 *299:CK 1.662e-05
14 *298:CK 1.662e-05
15 *297:CK 1.662e-05
16 *296:CK 1.662e-05
17 *295:CK 1.662e-05
18 *294:CK 1.662e-05
19 *293:CK 1.662e-05
20 *292:CK 1.662e-05
21 *291:CK 1.662e-05
22 *290:CK 1.662e-05
23 *289:CK 1.662e-05
24 *288:CK 1.662e-05
25 *287:CK 1.662e-05
26 *286:CK 1.662e-05
27 *285:CK 1.662e-05
28 *284:CK 1.662e-05
29 *283:CK 1.662e-05
30 *282:CK 1.662e-05
31 *281:CK 1.662e-05
32 *280:CK 1.662e-05
33 *279:CK 1.662e-05
34 *278:CK 1.662e-05
35 *277:CK 1.662e-05
36 *276:CK 1.662e-05
37 *275:CK 1.662e-05
38 *274:CK 1.662e-05
39 *273:CK 1.662e-05
40 *272:CK 1.662e-05
41 *271:CK 1.662e-05
42 *270:CK 1.662e-05
43 *269:CK 1.662e-05
44 *268:CK 1.662e-05
45 *267:CK 1.662e-05
46 *266:CK 1.662e-05
47 *265:CK 1.662e-05
48 *264:CK 1.662e-05
49 *263:CK 1.662e-05
50 *262:CK 1.662e-05
51 *261:CK 1.662e-05
52 *1:51 7.963e-05
53 *1:52 4.63e-05
54 *1:53 7.436e-05
55 *1:54 3.006e-05
56 *1:55 0.00017007
57 *1:56 0.00019731
58 *1:57 1.252e-05
59 *1:58 1.252e-05
60 *1:59 3.951e-05
61 *1:60 1.271e-05
62 *1:61 3.475e-05
63 *1:62 1.271e-05
64 *1:63 1.236e-05
65 *1:64 1.704e-05
66 *1:65 2.084e-05
67 *1:66 3.013e-05
68 *1:67 2.785e-05
69 *1:68 4.701e-05
70 *1:69 5.979e-05
71 *1:70 2e-05
72 *1:71 6.816e-05
73 *1:72 4.226e-05
74 *1:73 2.697e-05
75 *1:74 4.615e-05
76 *1:75 8.604e-05
77 *1:76 8.624e-05
78 *1:77 4.92e-05
79 *1:78 5.161e-05
80 *1:79 5.161e-05
81 *1:80 6.099e-05
82 *1:81 6.099e-05
83 *1:82 6.491e-05
84 *1:83 5.741e-05
85 *1:84 2.33e-05
86 *1:85 2.102e-05
87 *1:86 2.517e-05
88 *1:87 3.505e-05
89 *1:88 0.00010031
90 *1:89 7.597e-05
91 *1:90 3.564e-05
92 *1:91 8.864e-05
93 *1:92 8.662e-05
94 *1:93 8.662e-05
95 *1:94 1.783e-05
96 *1:95 1.783e-05
97 *1:96 0.00010974
98 *1:97 0.00015566
99 *1:98 5.909e-05
100 *1:99 5.909e-05
101 *1:100 3.257e-05
102 *1:101 3.485e-05
103 *1:102 3.272e-05
104 *1:103 5.826e-05
105 *1:104 6.887e-05
106 *1:105 9.598e-05
107 *1:106 5.153e-05
108 *1:107 0.00016448
109 *1:108 0.00016445
110 *1:109 5.38e-05
111 *1:110 8.572e-05
112 *1:111 2.908e-05
113 *1:112 9.115e-05
114 *1:113 0.00012084
115 *1:114 6.635e-05
116 *1:115 6.082e-05
117 *1:116 6.08e-05
118 *1:117 2.299e-05
119 *1:118 2.071e-05
120 *1:119 5.075e-05
121 *1:120 4.845e-05
122 *1:121 7.062e-05
123 *1:122 7.094e-05
124 *1:123 8.993e-05
125 *1:124 0.00019654
126 *1:125 0.00018296
127 *1:126 7.114e-05
128 *1:127 8.344e-05
129 *1:128 5.637e-05
130 *1:129 5.637e-05
131 *1:130 7.998e-05
132 *1:131 8.228e-05
133 *1:132 2.207e-05
134 *1:133 2.175e-05
135 *1:134 2.311e-05
136 *1:135 9.162e-05
137 *1:136 3.422e-05
138 *1:137 4.609e-05
139 *1:138 4.641e-05
140 *1:139 3.299e-05
141 *1:140 3.299e-05
142 *1:141 4.521e-05
143 *1:142 4.521e-05
144 *1:143 5.742e-05
145 *1:144 4.429e-05
146 *1:145 5.747e-05
147 *1:146 5.747e-05
148 *1:147 3.63e-05
149 *1:148 2.934e-05
150 *1:149 7.508e-05
151 *1:150 7.508e-05
152 *1:151 1.236e-05
153 *1:152 8.284e-05
154 *1:153 4.104e-05
155 *1:154 2.645e-05
156 *1:155 2.417e-05
157 *1:156 1.464e-05
158 *1:157 1.464e-05
159 *1:158 7.319e-05
160 *1:159 0.00010518
161 *1:160 2.041e-05
162 *1:161 1.99e-05
163 *1:162 7.347e-05
164 *1:163 4.243e-05
165 *1:164 7.541e-05
166 *1:165 6.813e-05
167 *1:166 5.493e-05
168 *1:167 0.00011345
169 *1:168 0.00020009
170 *1:169 4.092e-05
171 *1:170 0.00013367
172 *1:171 0.00011092
173 *1:172 5.493e-05
174 *1:173 1.261e-05
175 *1:174 1.489e-05
176 *1:175 0.00012386
177 *1:176 3.542e-05
178 *1:177 1.748e-05
179 *1:178 3.77e-05
180 *1:179 3.542e-05
181 *1:180 4.11e-05
182 *1:181 5.902e-05
183 *1:182 2.903e-05
184 *1:183 1.226e-05
185 *1:184 4.384e-05
186 *1:185 4.146e-05
187 *1:186 5.114e-05
188 *1:187 5.38e-05
189 *1:188 0.00022278
190 *1:189 3.971e-05
191 *1:190 7.666e-05
192 *1:191 4.418e-05
193 *1:192 7.11e-05
194 *1:193 3.918e-05
195 *1:194 5.137e-05
196 *1:195 1.454e-05
197 *1:196 9.31e-05
198 *1:197 3.45e-05
199 *1:198 1.246e-05
200 *1:199 6.669e-05
201 *1:200 5.232e-05
202 *1:201 1.52e-05
203 *1:202 1.236e-05
204 *1:203 5.232e-05
205 *1:204 5.1e-05
206 *1:205 5.1e-05
207 *1:206 7.368e-05
208 *1:207 7.368e-05
209 *1:208 5.398e-05
210 *1:209 0.00023312
211 *1:210 0.00023139
212 *1:211 0.00020822
213 *1:212 0.00020822
214 *1:213 0.000309
215 *1:214 4.056e-05
216 *1:215 4.384e-05
217 *1:216 7.452e-05
218 *1:217 2.16e-05
219 *1:218 1.694e-05
220 *1:219 1.694e-05
221 *1:220 3.8e-05
222 *1:221 2.13e-05
223 *1:222 0.00012556
224 *1:223 0.00033972
225 *1:224 8.443e-05
226 *1:225 8.443e-05
227 *1:226 1.236e-05
228 *1:227 0.00015456
229 *1:228 0.00015488
230 *1:229 6.405e-05
231 *1:230 1.226e-05
232 *1:231 1.399e-05
233 *1:232 1.399e-05
234 *1:233 3.376e-05
235 *1:234 1.958e-05
236 *1:235 5.092e-05
237 *1:236 8.254e-05
238 *1:237 3.922e-05
239 *1:238 9.605e-05
240 *1:239 5.234e-05
241 *1:240 6.102e-05
242 *1:241 6.102e-05
243 *1:242 2.494e-05
244 *1:243 4.47e-05
245 *1:244 3.43e-05
246 *1:245 4.505e-05
247 *1:246 4.267e-05
248 *1:247 2.408e-05
249 *1:248 3.134e-05
250 *1:249 1.714e-05
251 *1:250 5.004e-05

*RES
1 *1:201 *261:CK 5
2 *1:122 *1:201 5
3 *1:122 *1:121 6.10714
4 *1:121 *1:129 0.5
5 *1:129 *1:128 6.10714
6 *1:133 *1:128 0.5
7 *1:133 *1:132 1.35714
8 *1:120 *270:CK 5
9 *1:120 *1:132 5
10 *1:120 *1:119 3
11 *1:131 *1:119 0.678571
12 *1:131 *1:130 7
13 *1:130 *275:CK 5
14 *1:228 *1:130 5
15 *1:227 *1:228 15.6071
16 *1:227 *1:141 0.5
17 *1:58 *303:CK 5
18 *1:142 *1:141 4.75
19 *1:58 *1:57 0.5
20 *1:160 *1:142 0.5
21 *1:143 *1:57 5
22 *1:143 *1:160 1.35714
23 *1:144 *1:143 3.39286
24 *1:54 *1:144 5
25 *1:161 *304:CK 5
26 *1:54 *1:53 2.5
27 *1:53 *1:161 1.5
28 *1:53 *1:56 2.71429
29 *1:56 *1:55 11.5
30 *1:55 *305:CK 5
31 *1:55 *1:226 0.5
32 *1:209 *1 0.95
33 *1:225 *1:226 5
34 *1:209 *1:210 33.0057
35 *1:224 *1:225 6.10714
36 *1:211 *1:210 5
37 *1:52 *1:224 5
38 *1:212 *1:211 21.5
39 *1:52 *1:51 5
40 *1:51 *309:CK 5
41 *1:217 *310:CK 5
42 *1:213 *1:212 5
43 *1:51 *1:166 3
44 *1:166 *1:217 1.5
45 *1:213 *1:223 31.2143
46 *1:223 *1:166 5
47 *1:223 *1:220 3.39286
48 *1:67 *301:CK 5
49 *1:155 *274:CK 5
50 *1:165 *1:220 0.5
51 *1:67 *1:66 2.5
52 *1:155 *1:154 2.5
53 *1:165 *1:164 7.46429
54 *1:64 *306:CK 5
55 *1:66 *1:214 0.678571
56 *1:157 *1:154 0.678571
57 *1:164 *1:221 1
58 *1:65 *1:64 1
59 *1:216 *307:CK 5
60 *1:214 *1:216 3
61 *1:157 *1:156 0.5
62 *1:221 *1:222 0.678571
63 *1:222 *1:65 5
64 *1:216 *1:215 3.5
65 *1:219 *302:CK 5
66 *1:163 *1:156 0.678571
67 *1:193 *269:CK 5
68 *1:222 *1:168 12.2143
69 *1:168 *1:215 5
70 *1:218 *1:219 1
71 *1:162 *308:CK 5
72 *1:163 *1:162 3
73 *1:193 *1:192 3
74 *1:168 *1:167 8.82143
75 *1:167 *1:218 5
76 *1:162 *1:169 3.5
77 *1:232 *286:CK 5
78 *1:192 *1:191 2.71429
79 *1:167 *1:171 2.71429
80 *1:171 *1:169 5
81 *1:231 *1:232 0.5
82 *1:83 *296:CK 5
83 *1:191 *1:83 0.5
84 *1:171 *1:170 8.14286
85 *1:170 *1:231 5
86 *1:83 *1:82 6
87 *1:170 *1:172 4.07143
88 *1:82 *1:106 1.35714
89 *1:77 *1:172 5
90 *1:105 *291:CK 5
91 *1:106 *1:105 5
92 *1:173 *299:CK 5
93 *1:75 *294:CK 5
94 *1:75 *1:77 4
95 *1:104 *280:CK 5
96 *1:105 *1:104 5.5
97 *1:174 *1:173 0.5
98 *1:76 *1:75 3.5
99 *1:104 *1:195 0.5
100 *1:109 *284:CK 5
101 *1:174 *1:86 0.678571
102 *1:76 *1:152 3.39286
103 *1:194 *1:195 0.678571
104 *1:110 *1:109 4
105 *1:87 *1:86 1.5
106 *1:153 *285:CK 5
107 *1:153 *1:152 5.5
108 *1:81 *282:CK 5
109 *1:196 *288:CK 5
110 *1:194 *1:196 4
111 *1:110 *1:200 2.71429
112 *1:198 *292:CK 5
113 *1:87 *1:233 1.35714
114 *1:235 *1:153 5
115 *1:81 *1:80 6.5
116 *1:196 *1:199 4
117 *1:199 *1:200 1
118 *1:197 *1:198 0.5
119 *1:158 *298:CK 5
120 *1:158 *1:233 1.5
121 *1:235 *1:236 4.75
122 *1:236 *1:80 5
123 *1:199 *1:108 0.678571
124 *1:108 *1:197 2.03571
125 *1:159 *293:CK 5
126 *1:159 *1:158 5.5
127 *1:236 *1:237 3.39286
128 *1:107 *297:CK 5
129 *1:108 *1:107 11.5
130 *1:202 *287:CK 5
131 *1:238 *1:159 4.5
132 *1:238 *1:237 5
133 *1:107 *1:114 3
134 *1:114 *1:202 0.5
135 *1:239 *1:238 4
136 *1:114 *1:89 2.03571
137 *1:239 *1:240 0.678571
138 *1:89 *1:88 6
139 *1:88 *295:CK 5
140 *1:241 *1:240 5
141 *1:88 *1:208 4.5
142 *1:242 *1:241 0.678571
143 *1:207 *1:208 5
144 *1:243 *1:242 1.5
145 *1:206 *1:207 6.78571
146 *1:243 *1:244 2.03571
147 *1:85 *300:CK 5
148 *1:85 *1:206 5
149 *1:245 *290:CK 5
150 *1:245 *1:244 0.5
151 *1:85 *1:84 2
152 *1:246 *1:245 3
153 *1:84 *1:205 0.678571
154 *1:247 *1:246 0.678571
155 *1:205 *1:204 4
156 *1:248 *289:CK 5
157 *1:248 *1:247 1.5
158 *1:203 *1:204 0.678571
159 *1:249 *1:248 1
160 *1:203 *1:250 4
161 *1:126 *1:249 5
162 *1:127 *1:250 5
163 *1:127 *1:126 6.10714
164 *1:234 *1:127 1.35714
165 *1:139 *1:234 0.5
166 *1:140 *1:139 4.07143
167 *1:140 *1:137 0.5
168 *1:230 *271:CK 5
169 *1:138 *1:137 3.39286
170 *1:229 *1:230 0.5
171 *1:151 *1:138 5
172 *1:229 *1:123 4.07143
173 *1:123 *1:151 0.5
174 *1:124 *281:CK 5
175 *1:124 *1:123 3
176 *1:125 *1:124 15
177 *1:125 *1:112 1.35714
178 *1:134 *276:CK 5
179 *1:113 *1:112 6.5
180 *1:135 *1:134 1.5
181 *1:135 *1:113 3.39286
182 *1:136 *1:135 3.5
183 *1:145 *1:136 5
184 *1:146 *1:145 4.07143
185 *1:73 *1:146 5
186 *1:74 *273:CK 5
187 *1:74 *1:73 1.5
188 *1:111 *1:74 1.5
189 *1:115 *1:111 0.678571
190 *1:116 *1:115 6.5
191 *1:79 *283:CK 5
192 *1:180 *267:CK 5
193 *1:116 *1:117 0.678571
194 *1:79 *1:78 4
195 *1:71 *272:CK 5
196 *1:180 *1:71 2.03571
197 *1:118 *1:117 1.5
198 *1:189 *1:78 5
199 *1:72 *1:71 6
200 *1:190 *1:118 5
201 *1:190 *1:189 6.10714
202 *1:181 *1:72 5
203 *1:181 *1:190 4.75
204 *1:182 *1:181 1.35714
205 *1:149 *1:182 1
206 *1:150 *1:149 7.46429
207 *1:150 *1:147 1
208 *1:148 *1:147 1.35714
209 *1:183 *1:148 5
210 *1:184 *278:CK 5
211 *1:184 *1:183 0.5
212 *1:185 *1:184 3
213 *1:68 *1:185 0.678571
214 *1:69 *262:CK 5
215 *1:69 *1:68 7
216 *1:70 *1:69 1.5
217 *1:92 *264:CK 5
218 *1:98 *1:70 0.339286
219 *1:95 *263:CK 5
220 *1:93 *1:92 9
221 *1:99 *1:98 6
222 *1:62 *279:CK 5
223 *1:179 *265:CK 5
224 *1:95 *1:94 1
225 *1:90 *1:93 5
226 *1:99 *1:186 0.339286
227 *1:60 *277:CK 5
228 *1:62 *1:61 0.5
229 *1:178 *1:179 2.5
230 *1:91 *1:94 5
231 *1:91 *1:90 2.71429
232 *1:187 *1:186 5
233 *1:60 *1:59 0.5
234 *1:59 *1:61 2.03571
235 *1:177 *1:178 0.678571
236 *1:96 *1:91 5.42857
237 *1:96 *1:187 5
238 *1:59 *1:63 0.5
239 *1:97 *1:177 5
240 *1:97 *1:96 6.10714
241 *1:188 *1:63 5
242 *1:188 *1:97 10.8571
243 *1:100 *266:CK 5
244 *1:175 *1:188 12.2143
245 *1:101 *1:100 4
246 *1:176 *1:175 5
247 *1:102 *1:101 0.678571
248 *1:176 *1:103 2.5
249 *1:103 *1:102 2.5
250 *268:CK *1:103 5
*END

*D_NET *2 0.0127815

*CONN
*P *2 I *C 0.285 38.08 *L 0
*I *341:A1 I *C 23.555 28.315 *L 0.0016 *D NAND2_X1
*I *340:A2 I *C 17.295 31.115 *L 0.00158 *D OAI22_X1
*I *339:A2 I *C 24.705 29.365 *L 0.00158 *D OAI22_X1
*I *338:A2 I *C 18.245 31.115 *L 0.00158 *D OAI22_X1
*I *337:A2 I *C 17.665 26.565 *L 0.00158 *D OAI22_X1
*I *336:A2 I *C 23.755 29.365 *L 0.00158 *D OAI22_X1
*I *300:RN I *C 31.325 21.605 *L 0.00178 *D DFFR_X1
*I *299:RN I *C 32.085 32.805 *L 0.00178 *D DFFR_X1
*I *298:RN I *C 32.655 30.475 *L 0.00178 *D DFFR_X1
*I *297:RN I *C 32.655 16.475 *L 0.00178 *D DFFR_X1
*I *296:RN I *C 29.855 7.605 *L 0.00178 *D DFFR_X1
*I *295:RN I *C 31.03 19.6 *L 0.00149 *D SDFFR_X1
*I *294:RN I *C 27.23 30.8 *L 0.00149 *D SDFFR_X1
*I *293:RN I *C 30.46 29.68 *L 0.00149 *D SDFFR_X1
*I *292:RN I *C 31.03 14 *L 0.00149 *D SDFFR_X1
*I *291:RN I *C 30.46 10.08 *L 0.00149 *D SDFFR_X1
*I *290:RN I *C 31.03 25.2 *L 0.00149 *D SDFFR_X1
*I *289:RN I *C 30.84 24.08 *L 0.00149 *D SDFFR_X1
*I *288:RN I *C 30.27 12.88 *L 0.00149 *D SDFFR_X1
*I *287:RN I *C 32.655 18.805 *L 0.00178 *D DFFR_X1
*I *286:RN I *C 28.285 32.805 *L 0.00178 *D DFFR_X1
*I *285:RN I *C 30.375 27.675 *L 0.00178 *D DFFR_X1
*I *284:RN I *C 31.705 16.005 *L 0.00178 *D DFFR_X1
*I *283:RN I *C 28.855 10.875 *L 0.00178 *D DFFR_X1
*I *282:RN I *C 31.705 27.205 *L 0.00178 *D DFFR_X1
*I *281:RN I *C 28.855 22.075 *L 0.00178 *D DFFR_X1
*I *280:RN I *C 32.655 10.875 *L 0.00178 *D DFFR_X1
*I *279:RN I *C 18.595 5.275 *L 0.00178 *D DFFR_X1
*I *278:RN I *C 22.965 13.205 *L 0.00178 *D DFFR_X1
*I *277:RN I *C 15.605 5.275 *L 0.00178 *D DFFR_X1
*I *276:RN I *C 28.285 16.475 *L 0.00178 *D DFFR_X1
*I *275:RN I *C 24.105 24.875 *L 0.00178 *D DFFR_X1
*I *274:RN I *C 26.385 30.005 *L 0.00178 *D DFFR_X1
*I *273:RN I *C 27.145 16.005 *L 0.00178 *D DFFR_X1
*I *272:RN I *C 25.815 13.675 *L 0.00178 *D DFFR_X1
*I *271:RN I *C 27.715 24.405 *L 0.00178 *D DFFR_X1
*I *270:RN I *C 24.295 22.075 *L 0.00178 *D DFFR_X1
*I *269:RN I *C 31.515 5.275 *L 0.00178 *D DFFR_X1
*I *268:RN I *C 14.605 7.605 *L 0.00178 *D DFFR_X1
*I *267:RN I *C 22.825 13.675 *L 0.00178 *D DFFR_X1
*I *266:RN I *C 14.795 8.075 *L 0.00178 *D DFFR_X1
*I *265:RN I *C 21.255 7.605 *L 0.00178 *D DFFR_X1
*I *264:RN I *C 25.055 8.075 *L 0.00178 *D DFFR_X1
*I *263:RN I *C 24.295 5.275 *L 0.00178 *D DFFR_X1
*I *262:RN I *C 22.775 10.405 *L 0.00178 *D DFFR_X1
*I *261:RN I *C 20.495 22.075 *L 0.00178 *D DFFR_X1

*CAP
1 *2 1.662e-05
2 *341:A1 1.662e-05
3 *340:A2 1.662e-05
4 *339:A2 1.662e-05
5 *338:A2 1.662e-05
6 *337:A2 1.662e-05
7 *336:A2 1.662e-05
8 *300:RN 3.324e-05
9 *299:RN 1.662e-05
10 *298:RN 1.662e-05
11 *297:RN 1.662e-05
12 *296:RN 1.662e-05
13 *295:RN 1.662e-05
14 *294:RN 1.662e-05
15 *293:RN 1.662e-05
16 *292:RN 1.662e-05
17 *291:RN 1.662e-05
18 *290:RN 1.662e-05
19 *289:RN 1.662e-05
20 *288:RN 1.662e-05
21 *287:RN 1.662e-05
22 *286:RN 1.662e-05
23 *285:RN 1.662e-05
24 *284:RN 1.662e-05
25 *283:RN 1.662e-05
26 *282:RN 1.662e-05
27 *281:RN 1.662e-05
28 *280:RN 1.662e-05
29 *279:RN 1.662e-05
30 *278:RN 1.662e-05
31 *277:RN 1.662e-05
32 *276:RN 1.662e-05
33 *275:RN 3.324e-05
34 *274:RN 1.662e-05
35 *273:RN 1.662e-05
36 *272:RN 1.662e-05
37 *271:RN 3.324e-05
38 *270:RN 1.662e-05
39 *269:RN 1.662e-05
40 *268:RN 1.662e-05
41 *267:RN 1.662e-05
42 *266:RN 1.662e-05
43 *265:RN 1.662e-05
44 *264:RN 1.662e-05
45 *263:RN 3.324e-05
46 *262:RN 1.662e-05
47 *261:RN 1.662e-05
48 *2:47 1.236e-05
49 *2:48 1.236e-05
50 *2:49 1.261e-05
51 *2:50 6.667e-05
52 *2:51 9.412e-05
53 *2:52 2.327e-05
54 *2:53 3.319e-05
55 *2:54 5.124e-05
56 *2:55 8.316e-05
57 *2:56 6.903e-05
58 *2:57 6.122e-05
59 *2:58 0.00010599
60 *2:59 9.609e-05
61 *2:60 0.00023717
62 *2:61 5.343e-05
63 *2:62 0.00019134
64 *2:63 1.572e-05
65 *2:64 1.8e-05
66 *2:65 4.986e-05
67 *2:66 5.487e-05
68 *2:67 1.489e-05
69 *2:68 3.329e-05
70 *2:69 4.532e-05
71 *2:70 2.191e-05
72 *2:71 0.00011075
73 *2:72 8.169e-05
74 *2:73 2.494e-05
75 *2:74 2.266e-05
76 *2:75 6.539e-05
77 *2:76 5.323e-05
78 *2:77 6.525e-05
79 *2:78 6.74e-05
80 *2:79 4.754e-05
81 *2:80 4.526e-05
82 *2:81 2.061e-05
83 *2:82 2.289e-05
84 *2:83 5.832e-05
85 *2:84 5.832e-05
86 *2:85 4.949e-05
87 *2:86 4.721e-05
88 *2:87 4.941e-05
89 *2:88 4.939e-05
90 *2:89 2.061e-05
91 *2:90 5.255e-05
92 *2:91 9.037e-05
93 *2:92 6.64e-05
94 *2:93 8.179e-05
95 *2:94 4.986e-05
96 *2:95 8.04e-05
97 *2:96 5.06e-05
98 *2:97 3.666e-05
99 *2:98 2.394e-05
100 *2:99 2.394e-05
101 *2:100 6.221e-05
102 *2:101 7.209e-05
103 *2:102 0.00010649
104 *2:103 0.00010649
105 *2:104 9.686e-05
106 *2:105 9.275e-05
107 *2:106 5.911e-05
108 *2:107 5.911e-05
109 *2:108 3.841e-05
110 *2:109 3.841e-05
111 *2:110 2.475e-05
112 *2:111 3.434e-05
113 *2:112 1.261e-05
114 *2:113 1.261e-05
115 *2:114 2.001e-05
116 *2:115 2.384e-05
117 *2:116 3.08e-05
118 *2:117 2.903e-05
119 *2:118 2.207e-05
120 *2:119 4.888e-05
121 *2:120 4.888e-05
122 *2:121 1.627e-05
123 *2:122 2.906e-05
124 *2:123 4.596e-05
125 *2:124 2.906e-05
126 *2:125 1.861e-05
127 *2:126 1.861e-05
128 *2:127 4.742e-05
129 *2:128 4.742e-05
130 *2:129 5.806e-05
131 *2:130 4.59e-05
132 *2:131 1.252e-05
133 *2:132 2.468e-05
134 *2:133 3.197e-05
135 *2:134 3.197e-05
136 *2:135 3.549e-05
137 *2:136 3.319e-05
138 *2:137 5.779e-05
139 *2:138 4.499e-05
140 *2:139 1.724e-05
141 *2:140 1.724e-05
142 *2:141 0.00026628
143 *2:142 0.00022664
144 *2:143 0.00029768
145 *2:144 0.00030132
146 *2:145 5.166e-05
147 *2:146 5.166e-05
148 *2:147 1.436e-05
149 *2:148 2.698e-05
150 *2:149 9.578e-05
151 *2:150 9.578e-05
152 *2:151 4.234e-05
153 *2:152 5.922e-05
154 *2:153 7.248e-05
155 *2:154 0.00018923
156 *2:155 0.00015507
157 *2:156 3.857e-05
158 *2:157 7.036e-05
159 *2:158 5.673e-05
160 *2:159 2.494e-05
161 *2:160 2.494e-05
162 *2:161 2.494e-05
163 *2:162 8.618e-05
164 *2:163 0.00014927
165 *2:164 0.00012568
166 *2:165 4.283e-05
167 *2:166 8.515e-05
168 *2:167 8.515e-05
169 *2:168 1.464e-05
170 *2:169 1.236e-05
171 *2:170 3.247e-05
172 *2:171 3.247e-05
173 *2:172 3.706e-05
174 *2:173 2.451e-05
175 *2:174 2.451e-05
176 *2:175 6.618e-05
177 *2:176 5.398e-05
178 *2:177 1.32e-05
179 *2:178 1.32e-05
180 *2:179 1.434e-05
181 *2:180 5.886e-05
182 *2:181 5.886e-05
183 *2:182 2.419e-05
184 *2:183 1.399e-05
185 *2:184 4.591e-05
186 *2:185 2.175e-05
187 *2:186 4.791e-05
188 *2:187 7.662e-05
189 *2:188 5.075e-05
190 *2:189 1.236e-05
191 *2:190 3.143e-05
192 *2:191 2.895e-05
193 *2:192 7.16e-05
194 *2:193 5.065e-05
195 *2:194 4.829e-05
196 *2:195 9.363e-05
197 *2:196 4.747e-05
198 *2:197 1.52e-05
199 *2:198 0.00024728
200 *2:199 0.00013666
201 *2:200 9.486e-05
202 *2:201 9.952e-05
203 *2:202 1.454e-05
204 *2:203 1.52e-05
205 *2:204 8.134e-05
206 *2:205 0.00019196
207 *2:206 8.568e-05
208 *2:207 4.67e-05
209 *2:208 4.442e-05
210 *2:209 5.41e-05
211 *2:210 5.41e-05
212 *2:211 4.612e-05
213 *2:212 8.808e-05
214 *2:213 0.00017214
215 *2:214 0.00014756
216 *2:215 1.52e-05
217 *2:216 2.7e-05
218 *2:217 2.7e-05
219 *2:218 1.226e-05
220 *2:219 3.43e-05
221 *2:220 1.454e-05
222 *2:221 4.85e-05
223 *2:222 4.42e-05
224 *2:223 0.00029716
225 *2:224 0.00029336
226 *2:225 0.00023988
227 *2:226 0.00023956
228 *2:227 0.00010364
229 *2:228 1.748e-05
230 *2:229 1.594e-05
231 *2:230 2.626e-05
232 *2:231 2.626e-05
233 *2:232 2.388e-05
234 *2:233 2.16e-05
235 *2:234 0.00010364
236 *2:235 6.234e-05
237 *2:236 4.392e-05

*RES
1 *2:76 *295:RN 5
2 *2:76 *2:75 8
3 *2:101 *2:75 1.35714
4 *2:101 *2:100 7
5 *2:100 *2:185 0.678571
6 *2:185 *2:111 1.5
7 *2:111 *289:RN 5
8 *2:223 *2 5
9 *2:231 *286:RN 5
10 *2:111 *2:110 2
11 *2:169 *282:RN 5
12 *2:224 *2:223 30.625
13 *2:230 *2:231 2
14 *2:110 *2:182 0.678571
15 *2:169 *2:168 0.5
16 *2:225 *2:224 5
17 *2:180 *2:230 5
18 *2:182 *2:78 1.5
19 *2:78 *290:RN 5
20 *2:168 *2:161 0.678571
21 *2:225 *2:226 25.1071
22 *2:181 *2:180 4.75
23 *2:78 *2:77 6.5
24 *2:161 *2:160 1.5
25 *2:233 *299:RN 5
26 *2:226 *2:146 0.5
27 *2:65 *2:181 5
28 *2:188 *2:77 1.35714
29 *2:167 *2:160 0.678571
30 *2:232 *2:233 1.5
31 *2:146 *2:145 4.07143
32 *2:176 *337:A2 5
33 *2:47 *338:A2 5
34 *2:66 *294:RN 5
35 *2:66 *2:65 5.5
36 *2:188 *2:187 2.5
37 *2:187 *285:RN 5
38 *2:167 *2:166 7
39 *2:156 *2:232 0.678571
40 *2:144 *2:145 0.5
41 *2:176 *2:175 4.5
42 *2:48 *2:47 0.5
43 *2:67 *2:66 0.5
44 *2:187 *2:186 5
45 *2:166 *2:159 0.678571
46 *2:157 *298:RN 5
47 *2:157 *2:156 5
48 *2:144 *2:143 22.3929
49 *2:53 *2:175 1.35714
50 *2:170 *2:48 5
51 *2:68 *2:67 0.678571
52 *2:191 *2:186 0.678571
53 *2:189 *293:RN 5
54 *2:159 *2:158 1.5
55 *2:158 *2:157 3
56 *2:150 *2:143 0.25
57 *2:53 *2:52 2
58 *2:49 *340:A2 5
59 *2:171 *2:170 3.39286
60 *2:69 *274:RN 5
61 *2:69 *2:68 2
62 *2:191 *2:190 2
63 *2:190 *2:189 0.5
64 *2:153 *2:158 5
65 *2:150 *2:149 8.14286
66 *2:52 *2:151 0.678571
67 *2:50 *2:49 0.5
68 *2:50 *2:171 5
69 *2:70 *2:69 1.5
70 *2:154 *2:190 5
71 *2:154 *2:153 8.82143
72 *2:149 *2:229 0.25
73 *2:151 *2:51 3.5
74 *2:51 *2:50 5
75 *2:155 *2:70 5
76 *2:155 *2:154 12.2143
77 *2:229 *2:148 1.35714
78 *2:148 *2:51 5
79 *2:178 *339:A2 5
80 *2:235 *2:155 3.39286
81 *2:148 *2:147 0.678571
82 *2:178 *2:177 0.5
83 *2:236 *2:235 3.39286
84 *2:147 *2:142 0.5
85 *2:152 *2:177 5
86 *2:152 *2:236 1.35714
87 *2:228 *341:A1 5
88 *2:142 *2:141 22.3929
89 *2:141 *2:152 3.39286
90 *2:228 *2:174 0.678571
91 *2:179 *2:141 5
92 *2:215 *261:RN 5
93 *2:174 *2:173 1
94 *2:172 *336:A2 5
95 *2:172 *2:179 0.5
96 *2:103 *2:215 5
97 *2:173 *2:137 0.678571
98 *2:137 *2:172 3.5
99 *2:103 *2:102 12.2143
100 *2:138 *2:137 3.5
101 *2:136 *270:RN 5
102 *2:136 *2:102 5
103 *2:138 *2:58 1.35714
104 *2:136 *2:135 2.5
105 *2:59 *2:58 8
106 *2:57 *2:135 0.678571
107 *2:59 *2:114 0.678571
108 *2:57 *2:56 7.5
109 *2:56 *2:114 1.5
110 *275:RN *2:56 5
111 *2:112 *275:RN 5
112 *2:113 *2:112 0.5
113 *2:227 *2:113 5
114 *2:227 *2:234 10.1786